18 
0 water molecules and 2 ethanol molecules 
C 5.363566749299096 2.827844514468216 2.323525691382283 
H 5.961988749299096 2.190994514468216 2.977924691382283 
H 6.033708749299096 3.373024514468216 1.653383691382283 
H 4.709167749299096 2.190994514468216 1.725103691382283 
C 4.537538749299096 3.787684514468216 3.149553691382283 
H 3.940538749299096 4.435734514468216 2.492304691382283 
H 5.194787749299096 4.435734514468216 3.746613691382283 
O 3.696024749299096 3.000554514468216 3.991067691382283 
H 3.161068749299096 3.609754514468216 4.526023691382283 
C 3.338915896433747 0.646797083592531 -0.5057705293525901 
H 3.937337896433747 0.009947083592530825 0.14862847064740983 
H 4.009057896433747 1.191977083592531 -1.17591252935259 
H 2.6845168964337467 0.009947083592530825 -1.10419252935259 
C 2.512887896433747 1.6066370835925308 0.32025747064740984 
H 1.915887896433747 2.254687083592531 -0.33699152935259014 
H 3.170136896433747 2.254687083592531 0.9173174706474099 
O 1.6713738964337468 0.8195070835925309 1.1617714706474098 
H 1.1364178964337468 1.4287070835925308 1.69672747064741 
