270 
60 water molecules and 10 ethanol molecules 
C 2.624308676434672 7.861005387922546 10.420319406276683 
H 3.222730676434672 7.224155387922546 11.074718406276684 
H 3.294450676434672 8.406185387922546 9.750177406276684 
H 1.9699096764346722 7.224155387922546 9.821897406276683 
C 1.7982806764346722 8.820845387922546 11.246347406276684 
H 1.2012806764346722 9.468895387922547 10.589098406276683 
H 2.455529676434672 9.468895387922547 11.843407406276684 
O 0.9567666764346722 8.033715387922546 12.087861406276684 
H 0.42181067643467207 8.642915387922546 12.622817406276683 
C 5.811993180921054 4.6335952323611584 9.186659360539387 
H 6.410415180921055 3.9967452323611585 9.841058360539389 
H 6.482135180921055 5.178775232361159 8.516517360539389 
H 5.157594180921055 3.9967452323611585 8.588237360539388 
C 4.985965180921054 5.593435232361158 10.012687360539388 
H 4.388965180921055 6.241485232361159 9.355438360539388 
H 5.6432141809210545 6.241485232361159 10.609747360539389 
O 4.144451180921054 4.806305232361159 10.854201360539388 
H 3.609495180921054 5.415505232361158 11.389157360539388 
C 10.17943415588216 5.34293647872324 4.404674732274483 
H 10.77785615588216 4.70608647872324 5.0590737322744825 
H 10.84957615588216 5.88811647872324 3.7345327322744826 
H 9.52503515588216 4.70608647872324 3.8062527322744826 
C 9.35340615588216 6.302776478723239 5.230702732274483 
H 8.75640615588216 6.95082647872324 4.573453732274483 
H 10.01065515588216 6.95082647872324 5.827762732274483 
O 8.51189215588216 5.51564647872324 6.072216732274483 
H 7.97693615588216 6.1248464787232395 6.607172732274483 
C 12.436973896974074 6.256628575113514 8.74671333149492 
H 13.035395896974073 5.619778575113514 9.40111233149492 
H 13.107115896974072 6.801808575113514 8.07657133149492 
H 11.782574896974072 5.619778575113514 8.148291331494919 
C 11.610945896974073 7.216468575113514 9.57274133149492 
H 11.013945896974073 7.8645185751135145 8.915492331494919 
H 12.268194896974073 7.8645185751135145 10.16980133149492 
O 10.769431896974073 6.429338575113515 10.41425533149492 
H 10.234475896974073 7.038538575113514 10.949211331494919 
C 2.2705352394129372 9.141534075338848 4.103916782008499 
H 2.8689572394129375 8.504684075338847 4.7583157820084985 
H 2.9406772394129375 9.686714075338848 3.4337747820084985 
H 1.6161362394129375 8.504684075338847 3.5054947820084985 
C 1.4445072394129375 10.101374075338848 4.929944782008499 
H 0.8475072394129375 10.749424075338847 4.2726957820084985 
H 2.1017562394129374 10.749424075338847 5.527004782008499 
O 0.6029932394129375 9.314244075338848 5.771458782008499 
H 0.06803723941293738 9.923444075338848 6.306414782008499 
C 10.538337692369538 3.381170911052393 11.206050683229964 
H 11.136759692369539 2.744320911052393 11.860449683229966 
H 11.208479692369538 3.9263509110523933 10.535908683229966 
H 9.883938692369538 2.744320911052393 10.607628683229965 
C 9.712309692369539 4.341010911052393 12.032078683229965 
H 9.11530969236954 4.989060911052393 11.374829683229965 
H 10.369558692369539 4.989060911052393 12.629138683229966 
O 8.870795692369539 3.5538809110523935 12.873592683229965 
H 8.33583969236954 4.163080911052393 13.408548683229965 
C 9.843553527796058 9.61749288126113 6.070282606936122 
H 10.441975527796059 8.98064288126113 6.724681606936122 
H 10.513695527796058 10.16267288126113 5.400140606936122 
H 9.189154527796058 8.98064288126113 5.471860606936122 
C 9.017525527796058 10.57733288126113 6.896310606936122 
H 8.420525527796059 11.22538288126113 6.239061606936122 
H 9.674774527796059 11.22538288126113 7.493370606936122 
O 8.176011527796058 9.79020288126113 7.7378246069361225 
H 7.641055527796058 10.39940288126113 8.272780606936122 
C 7.6746317467043275 12.200996878464371 1.580465081966694 
H 8.273053746704328 11.56414687846437 2.2348640819666943 
H 8.344773746704327 12.746176878464372 0.9103230819666941 
H 7.020232746704328 11.56414687846437 0.9820430819666941 
C 6.8486037467043275 13.160836878464371 2.406493081966694 
H 6.251603746704328 13.80888687846437 1.7492440819666941 
H 7.505852746704328 13.80888687846437 3.003553081966694 
O 6.007089746704327 12.373706878464372 3.248007081966694 
H 5.472133746704327 12.982906878464371 3.7829630819666944 
C 1.0116968719887043 1.9527845745922983 -0.6798004749700308 
H 1.6101188719887043 1.3159345745922981 -0.02540147497003084 
H 1.6818388719887043 2.4979645745922983 -1.3499424749700308 
H 0.35729787198870433 1.3159345745922981 -1.2782224749700308 
C 0.1856688719887043 2.9126245745922983 0.14622752502996916 
H -0.4113311280112957 3.5606745745922983 -0.5110214749700308 
H 0.8429178719887043 3.5606745745922983 0.7432875250299692 
O -0.6558451280112957 2.1254945745922984 0.9877415250299691 
H -1.1908011280112958 2.7346945745922984 1.5226975250299692 
C 11.861369385248622 8.483187554888415 0.5244695648923383 
H 12.459791385248622 7.846337554888415 1.1788685648923383 
H 12.53151138524862 9.028367554888415 -0.1456724351076617 
H 11.20697038524862 7.846337554888415 -0.0739524351076617 
C 11.035341385248621 9.443027554888415 1.3504975648923383 
H 10.438341385248622 10.091077554888415 0.6932485648923383 
H 11.692590385248621 10.091077554888415 1.9475575648923384 
O 10.193827385248621 8.655897554888416 2.192011564892338 
H 9.658871385248622 9.265097554888415 2.7269675648923384 
O 14.767281472242404 16.301580271511803 5.313296569162224 
H 14.620415872242404 17.2234915315118 5.1018238491622245 
H 15.135589022242403 15.963190601511801 4.492283189162225 
O 8.816308219574143 10.586447274061804 10.907267839571823 
H 8.669442619574143 11.508358534061806 10.695795119571823 
H 9.184615769574142 10.248057604061804 10.086254459571823 
O 6.521128964765448 11.800048802897148 12.16237275901605 
H 6.374263364765448 12.721960062897146 11.95090003901605 
H 6.889436514765448 11.461659132897147 11.34135937901605 
O 12.780793076840043 7.538479646474538 4.550970210432977 
H 12.633927476840043 8.460390906474537 4.3394974904329775 
H 13.149100626840042 7.200089976474538 3.7299568304329775 
O 15.059618837800281 13.081153820305474 15.39602498251006 
H 14.912753237800281 14.003065080305472 15.18455226251006 
H 15.42792638780028 12.742764150305472 14.57501160251006 
O 11.339708870774777 13.993991334050115 4.765559430868603 
H 11.192843270774777 14.915902594050117 4.554086710868602 
H 11.708016420774776 13.655601664050115 3.944546050868602 
O 2.8292269866602515 6.490318699202041 6.96266455135933 
H 2.6823613866602516 7.412229959202041 6.75119183135933 
H 3.197534536660252 6.151929029202042 6.141651171359331 
O 2.23628095841357 11.800523824860104 8.714345956667069 
H 2.08941535841357 12.722435084860102 8.50287323666707 
H 2.6045885084135705 11.462134154860102 7.893332576667069 
O 9.078089567731956 14.580317897476391 15.265899029258364 
H 8.931223967731956 15.502229157476393 15.054426309258364 
H 9.446397117731955 14.241928227476391 14.444885649258364 
O 13.200661588629528 10.747553231290478 10.9236818281473 
H 13.053795988629528 11.669464491290476 10.7122091081473 
H 13.568969138629527 10.409163561290477 10.1026684481473 
O 2.9476517857703324 2.8315576284237167 2.6393550027316923 
H 2.8007861857703324 3.7534688884237166 2.4278822827316926 
H 3.3159593357703327 2.493167958423717 1.8183416227316926 
O 14.097698061163921 8.498331973229043 1.9485783603683688 
H 13.950832461163921 9.420243233229042 1.737105640368369 
H 14.46600561116392 8.159942303229043 1.1275649803683687 
O 3.6736381854999727 12.017428996496164 4.603001542691042 
H 3.5267725854999727 12.939340256496166 4.3915288226910425 
H 4.041945735499973 11.679039326496165 3.781988162691042 
O 2.428050678182638 12.454801761397519 12.980204311494866 
H 2.281185078182638 13.376713021397517 12.768731591494866 
H 2.796358228182638 12.116412091397518 12.159190931494866 
O 8.015604834427968 2.7999483802465086 8.663440220980178 
H 7.868739234427967 3.7218596402465085 8.451967500980178 
H 8.383912384427967 2.461558710246509 7.842426840980178 
O 13.760467034879804 13.984289940927873 10.45088140025599 
H 13.613601434879804 14.906201200927871 10.239408680255991 
H 14.128774584879803 13.645900270927871 9.62986802025599 
O 10.432893355999187 14.930098023747504 8.593927499198543 
H 10.286027755999188 15.852009283747503 8.382454779198543 
H 10.801200905999186 14.591708353747503 7.772914119198543 
O 7.390477044266473 4.279653209484515 3.139320448298349 
H 7.243611444266473 5.201564469484515 2.9278477282983495 
H 7.758784594266473 3.941263539484515 2.318307068298349 
O 6.646664695518605 10.842627616476037 5.316266804878882 
H 6.499799095518605 11.764538876476035 5.104794084878883 
H 7.014972245518605 10.504237946476035 4.495253424878882 
O 6.228686200481062 7.9218656758543355 3.05529041730412 
H 6.081820600481062 8.843776935854336 2.84381769730412 
H 6.596993750481062 7.583476005854336 2.23427703730412 
O 4.871034648818519 11.689706026784673 9.402216808913904 
H 4.724169048818519 12.611617286784675 9.190744088913904 
H 5.239342198818519 11.351316356784674 8.581203428913904 
O 4.794161185856487 3.375150467712155 4.624227239260005 
H 4.6472955858564875 4.297061727712155 4.412754519260004 
H 5.162468735856487 3.036760797712155 3.8032138592600044 
O 6.674164071973944 9.003157920180062 12.898950561668762 
H 6.527298471973944 9.92506918018006 12.687477841668763 
H 7.042471621973945 8.66476825018006 12.077937181668762 
O 6.231007515562437 16.27282243578976 6.71080024740535 
H 6.084141915562437 17.194733695789758 6.49932752740535 
H 6.599315065562438 15.934432765789758 5.88978686740535 
O 13.073985238232785 14.886164146391732 4.8976353319133334 
H 12.927119638232785 15.808075406391733 4.686162611913333 
H 13.442292788232784 14.547774476391732 4.076621951913333 
O 8.593495066846323 15.02349853581018 11.99350194415356 
H 8.446629466846323 15.945409795810182 11.782029224153561 
H 8.961802616846324 14.68510886581018 11.17248856415356 
O 4.305114806702441 14.675350479860558 13.465579004618252 
H 4.1582492067024415 15.59726173986056 13.254106284618253 
H 4.673422356702441 14.336960809860559 12.644565624618252 
O 15.829178889806188 3.8952955660689526 10.568771398664197 
H 15.682313289806189 4.8172068260689525 10.357298678664197 
H 16.197486439806188 3.5569058960689524 9.747758018664197 
O 9.320435482165138 14.92563362625426 4.333533826493847 
H 9.173569882165138 15.847544886254259 4.122061106493846 
H 9.688743032165137 14.587243956254259 3.512520446493846 
O 14.516382273546967 5.605582577171873 6.60034521772079 
H 14.369516673546967 6.527493837171873 6.38887249772079 
H 14.884689823546966 5.267192907171873 5.7793318377207905 
O 7.549350496531516 13.415519205811815 8.875395875401196 
H 7.402484896531516 14.337430465811813 8.663923155401196 
H 7.917658046531516 13.077129535811814 8.054382495401196 
O 3.462134833149772 14.40075802762308 7.161287980609103 
H 3.315269233149772 15.322669287623079 6.949815260609103 
H 3.830442383149772 14.062368357623079 6.340274600609104 
O 2.953129148446465 4.2183199378942335 13.503229267333298 
H 2.806263548446465 5.140231197894233 13.291756547333298 
H 3.3214366984464654 3.8799302678942333 12.682215887333298 
O 13.302013740944876 15.23059145690667 7.572141836538769 
H 13.155148140944876 16.152502716906668 7.360669116538769 
H 13.670321290944875 14.892201786906668 6.75112845653877 
O 14.454981148665395 7.967874831848264 9.060222459340538 
H 14.308115548665395 8.889786091848265 8.848749739340539 
H 14.823288698665394 7.629485161848264 8.239209079340538 
O 4.427844428484176 9.419852703647413 13.805906197213844 
H 4.280978828484176 10.341763963647413 13.594433477213844 
H 4.7961519784841755 9.081463033647413 12.984892817213844 
O 6.624647378144125 2.414348367401737 14.412206181378963 
H 6.477781778144125 3.336259627401737 14.200733461378963 
H 6.992954928144126 2.0759586974017368 13.591192801378963 
O 7.180730276180389 7.653652443427169 10.175328885206772 
H 7.033864676180389 8.575563703427168 9.963856165206773 
H 7.54903782618039 7.315262773427169 9.354315505206772 
O 10.420889191911636 3.924919043710396 15.654178452239055 
H 10.274023591911636 4.846830303710396 15.442705732239055 
H 10.789196741911635 3.5865293737103956 14.833165072239055 
O 5.988947791340665 4.983442319427293 13.40248245147353 
H 5.842082191340665 5.905353579427293 13.19100973147353 
H 6.3572553413406645 4.645052649427293 12.58146907147353 
O 14.355575036085513 12.146615317715902 6.989179657440873 
H 14.208709436085513 13.068526577715904 6.777706937440873 
H 14.723882586085512 11.808225647715902 6.168166277440873 
O 4.317096164034266 10.773675357001228 6.75589426230391 
H 4.1702305640342665 11.695586617001226 6.54442154230391 
H 4.685403714034266 10.435285687001226 5.9348808823039105 
O 2.269758561544401 9.187137058407272 14.618636477525806 
H 2.122892961544401 10.109048318407272 14.407163757525806 
H 2.6380661115444015 8.848747388407272 13.797623097525806 
O 8.549148521059776 7.202187078823703 15.070462771530284 
H 8.402282921059776 8.124098338823703 14.858990051530284 
H 8.917456071059776 6.863797408823703 14.249449391530284 
O 4.297613927170575 7.010303665630007 2.8508755534215973 
H 4.150748327170575 7.9322149256300065 2.639402833421597 
H 4.665921477170576 6.671913995630007 2.029862173421597 
O 4.513713865604596 16.266961162755038 10.24581476006073 
H 4.366848265604596 17.18887242275504 10.03434204006073 
H 4.882021415604596 15.928571492755038 9.42480138006073 
O 4.8857508955710465 9.218151801102753 11.022341424201354 
H 4.7388852955710465 10.140063061102754 10.810868704201354 
H 5.254058445571047 8.879762131102753 10.201328044201354 
O 11.358392423282988 14.613362438153334 1.98815444678514 
H 11.211526823282988 15.535273698153333 1.77668172678514 
H 11.726699973282987 14.274972768153333 1.16714106678514 
O 4.62721862218616 11.681129292981485 2.0403852607446273 
H 4.4803530221861605 12.603040552981483 1.8289125407446272 
H 4.99552617218616 11.342739622981483 1.2193718807446272 
O 5.263750278110491 7.335803499565217 7.779037404787122 
H 5.116884678110491 8.257714759565218 7.567564684787121 
H 5.632057828110492 6.997413829565217 6.958024024787122 
O 2.3718985745327723 5.710471670294503 2.2334367548323124 
H 2.2250329745327724 6.6323829302945025 2.0219640348323127 
H 2.7402061245327722 5.372082000294503 1.4124233748323127 
O 10.80321439817866 11.987604400821105 12.643499824425307 
H 10.65634879817866 12.909515660821103 12.432027104425307 
H 11.17152194817866 11.649214730821104 11.822486444425307 
O 12.266913118031189 11.953008575212824 8.986852800636129 
H 12.120047518031189 12.874919835212825 8.775380080636129 
H 12.635220668031188 11.614618905212824 8.165839420636129 
O 7.704113088835247 13.15024879332529 6.134691561506154 
H 7.557247488835247 14.072160053325291 5.923218841506153 
H 8.072420638835247 12.81185912332529 5.313678181506154 
O 12.333338099104079 5.38996318119804 12.370089409274954 
H 12.18647249910408 6.31187444119804 12.158616689274954 
H 12.701645649104078 5.051573511198041 11.549076029274953 
O 12.184961427810142 13.956500853780636 13.061347079043447 
H 12.038095827810142 14.878412113780634 12.849874359043447 
H 12.553268977810141 13.618111183780634 12.240333699043447 
O 12.42304359996315 5.919105770622597 6.439111349751059 
H 12.27617799996315 6.841017030622597 6.227638629751058 
H 12.791351149963148 5.580716100622596 5.618097969751059 
O 10.248917622327694 3.8515616549139526 7.684413394270049 
H 10.102052022327694 4.7734729149139525 7.472940674270049 
H 10.617225172327693 3.513171984913953 6.8634000142700495 
O 7.954547999166345 11.74291640991509 13.347961696255068 
H 7.807682399166345 12.664827669915091 13.136488976255068 
H 8.322855549166345 11.40452673991509 12.526948316255067 
O 15.05816135099754 11.671035243010593 11.172458460603734 
H 14.91129575099754 12.592946503010594 10.960985740603734 
H 15.42646890099754 11.332645573010593 10.351445080603733 
